STAAD SPACE
START JOB INFORMATION
ENGINEER DATE 05-Feb-25
END JOB INFORMATION
INPUT WIDTH 79
UNIT METER KN
JOINT COORDINATES
482 -20.49 6.5 7.5; 484 2.37 6 7.5; 485 2.37 8.017 7.5; 489 25.23 9.541 7.5;
495 25.23 6 7.5; 520 -20.49 6.5 15.12; 523 2.37 8.017 15.12;
527 25.23 9.541 15.12; 533 25.23 6 15.12; 1424 -5.25 7.509 7.5;
1425 9.99 8.525 7.5; 1426 -12.87 7.001 7.5; 1427 17.61 9.033 7.5;
1436 -5.25 7.509 15.12; 1437 9.99 8.525 15.12; 1438 -12.87 7.001 15.12;
1439 17.61 9.033 15.12; 1447 25.23 0 15.12; 1448 25.23 4 15.12;
1473 -20.49 0 22.74; 1474 -20.49 4 22.74; 1476 -20.49 6.5 22.74;
1478 2.37 0 22.74; 1480 2.37 6 22.74; 1481 2.37 8.017 22.74;
1482 25.23 0 22.74; 1483 25.23 4 22.74; 1486 25.23 6 22.74;
1487 25.23 9.541 22.74; 1499 -5.25 7.509 22.74; 1500 9.99 8.525 22.74;
1501 -12.87 7.001 22.74; 1502 17.61 9.033 22.74; 1503 9.99 0 22.74;
1504 9.99 4 22.74; 1505 17.61 0 22.74; 1506 17.61 4 22.74; 1507 -12.87 0 22.74;
1508 -12.87 3 22.74; 1509 -5.25 0 22.74; 1510 -5.25 3 22.74; 1513 2.37 4 22.74;
1518 -20.49 0 7.5; 1520 -20.49 4 7.5; 1523 2.37 0 7.5; 1525 25.23 0 7.5;
1534 -12.87 0 7.5; 1535 -12.87 3 7.5; 1537 2.37 4 7.5;
1551 -5.25 -0.000300169 7.5; 1552 -5.25 2.9997 7.5; 1555 9.99 0 7.5;
1556 9.99 4 7.5; 1559 17.61 0 7.5; 1560 17.61 4 7.5; 1561 25.23 4 7.5;
1562 17.61 0 15.12; 1563 17.61 4 15.12; 1564 19.134 4 7.5; 1565 20.658 4 7.5;
1566 22.182 4 7.5; 1567 23.706 4 7.5; 1568 19.134 4 15.12; 1569 19.134 4 22.74;
1570 20.658 4 15.12; 1571 20.658 4 22.74; 1572 22.182 4 15.12;
# ... 13 like lines cut
MEMBER INCIDENCES
1225 482 1613; 1237 485 523; 1247 489 527; 1869 1427 1439; 1875 1447 1448;
1876 1448 533; 1877 533 527; 1888 520 1438; 1889 527 1439; 1892 523 1578;
1893 1437 1580; 1899 1581 1438; 1910 1473 1474; 1914 1480 1481; 1915 1482 1483;
1916 1483 1486; 1917 1486 1487; 1920 1501 1476; 1921 1502 1487; 1927 1481 1499;
1928 1481 1500; 1933 1503 1504; 1934 1505 1506; 1935 1507 1508; 1936 1509 1510;
1937 1499 1501; 1938 1500 1502; 1941 1513 1480; 1942 1504 1500; 1943 1506 1502;
1944 1508 1501; 1945 1510 1499; 1949 1478 1513; 1950 1474 1476; 1951 520 1610;
1952 523 1481; 1953 527 1487; 1958 1439 1502; 1975 484 485; 1978 495 489;
1979 1525 1561; 1983 1534 1535; 1991 1523 1537; 1993 1520 482; 1994 1537 484;
1995 1535 1426; 1996 1518 1520; 1998 1426 482; 1999 1427 489; 2002 485 1424;
2003 485 1425; 2008 1424 1426; 2009 1425 1427; 2012 1551 1552; 2015 1552 1424;
2016 1555 1556; 2019 1556 1425; 2020 1559 1560; 2023 1560 1427; 2024 1561 495;
2025 1562 1563; 2026 1560 1564; 2027 1561 1448; 2028 1448 1483; 2029 1560 1563;
2030 1563 1506; 2031 1506 1569; 2032 1563 1568; 2033 1564 1565; 2034 1565 1566;
2035 1566 1567; 2036 1567 1561; 2037 1568 1570; 2038 1564 1568; 2039 1568 1569;
2040 1570 1572; 2041 1565 1570; 2042 1570 1571; 2043 1572 1574; 2044 1566 1572;
2045 1572 1573; 2046 1574 1448; 2047 1567 1574; 2048 1574 1575; 2049 1575 1483;
2050 1573 1575; 2051 1571 1573; 2052 1569 1571; 2055 520 1426; 2056 1426 1436;
2057 1436 485; 2058 485 1437; 2059 1437 1427; 2060 527 1427; 2061 482 1438;
2062 1438 1424; 2063 1424 523; 2064 523 1425; 2065 1425 1439; 2066 1439 489;
# ... 19 like lines cut
DEFINE MATERIAL START
ISOTROPIC STEEL
E 2.05e+08
POISSON 0.3
DENSITY 78.5
ALPHA 1.2e-05
DAMP 0.03
TYPE STEEL
STRENGTH RY 1.5 RT 1.2
END DEFINE MATERIAL
MEMBER PROPERTY AMERICAN
2027 TO 2030 2038 2039 2041 2042 2044 2045 2047 2048 2114 2115 2117 2119 2121 -
2123 2125 2127 2129 2131 TO 2133 2135 2137 2139 2141 2143 2145 2147 -
2149 TAPERED 0.37 0.004 0.37 0.15 0.006 0.15 0.006
1920 1921 1927 1928 1937 1938 1998 1999 2002 2003 2008 -
2009 TAPERED 0.35 0.004 0.35 0.15 0.006 0.15 0.006
1910 1935 1936 1944 1945 1950 1983 1993 1995 1996 2012 2015 2151 2152 2154 -
2155 TAPERED 0.3 0.004 0.3 0.15 0.006 0.15 0.006
MEMBER PROPERTY AMERICAN
1237 1247 1869 1952 1953 1958 2087 TO 2090 2156 TO 2161 -
2162 PRIS ROUND STA 0.089 END 0.089 THI 0.0032
MEMBER PROPERTY AMERICAN
1875 TO 1877 2025 2082 2093 2098 2099 2163 -
2164 TAPERED 0.35 0.005 0.35 0.215 0.008 0.215 0.008
1225 1951 2150 2153 TAPERED 0.6 0.005 0.6 0.25 0.01 0.25 0.01
MEMBER PROPERTY TATASTRUCTURA
1914 TO 1917 1933 1934 1941 TO 1943 1949 1975 1978 1979 1991 1994 2016 2019 -
2020 2023 2024 TAPERED 0.35 0.004 0.35 0.215 0.008 0.215 0.008
MEMBER PROPERTY TATASTRUCTURA
2055 TO 2080 2091 2092 PRIS YD 0.02
2026 2031 2033 TO 2036 2049 TO 2052 2101 2102 2104 TO 2113 2118 2122 2126 -
2130 2136 2140 2144 2148 TAPERED 0.5 0.005 0.5 0.215 0.008 0.215 0.008
1889 1892 1893 2081 2095 2096 TAPERED 0.35 0.004 0.35 0.15 0.006 0.15 0.006
1888 1899 2094 2097 TAPERED 0.35 0.005 0.7 0.165 0.008 0.165 0.008
MEMBER PROPERTY TATASTRUCTURA
2032 2037 2040 2043 2046 2100 2103 2116 2120 2124 2128 2134 2138 2142 -
2146 TAPERED 0.5 0.006 0.5 0.25 0.012
CONSTANTS
BETA 90 MEMB 1914 1933 TO 1936 1941 TO 1945 1949 1975 1983 1991 1994 1995 -
2012 2015 2016 2019 2020 2023
MATERIAL STEEL ALL
SUPPORTS
1447 1473 1478 1482 1503 1505 1507 1509 1518 1523 1525 1534 1551 1555 1559 -
1562 1577 1582 1584 1611 1614 PINNED
MEMBER RELEASE
1225 1914 1942 TO 1945 1951 1975 1995 2015 2019 2023 2027 TO 2030 2038 2039 -
2041 2042 2044 2045 2047 2048 2114 2115 2117 2119 2121 2123 2125 2127 2129 -
2131 TO 2133 2135 2137 2139 2141 2143 2145 2147 2149 2150 END MY MZ
1225 2027 TO 2030 2038 2039 2041 2042 2044 2045 2047 2048 2114 2115 2117 2119 -
2121 2123 2125 2127 2129 2131 TO 2133 2135 2137 2139 2141 2143 2145 2147 -
2149 2150 2153 START MY MZ
MEMBER TENSION 
2055 TO 2080 2091 2092
MEMBER TRUSS 
1237 1247 1869 1952 1953 1958 2087 TO 2090 2161 2162
DEFINE 1893 LOAD
ZONE 0.1 RF 4 I 1 SS 2 ST 1 DM 0.05
*********SELF WEIGHT OF STRUCTURE *******
SELFWEIGHT 1 
MEMBER WEIGHT
1876 1877 1888 1889 1892 1893 1899 1914 1916 1917 1941 TO 1945 1950 1975 1978 -
1979 1993 TO 1995 2015 2019 2023 2024 2081 2094 TO 2097 2151 2154 UNI 0.7
1920 1921 1927 1928 1937 1938 1998 1999 2002 2003 2008 2009 UNI 0.45
*******COLLECTRAL WT 3KN ON EACH COLUMN *****
*******AND SELF WEIGHT OF PARKED CRANE *****
JOINT WEIGHT
ONEWAY LOAD
YRANGE 0 5 ONE 4.875
LOAD 1 LOADTYPE None  TITLE EQ+X
1893 LOAD X 1
PERFORM ANALYSIS
CHANGE
LOAD 2 LOADTYPE None  TITLE EQ-X
1893 LOAD X -1
PERFORM ANALYSIS
CHANGE
LOAD 3 LOADTYPE None  TITLE EQ+Z
1893 LOAD Z 1
PERFORM ANALYSIS
CHANGE
LOAD 4 LOADTYPE None  TITLE EQ-Z
1893 LOAD Z -1
LOAD 5 LOADTYPE Dead  TITLE DEAD LOAD
****SELF WEIGHT OF STRUCTURE ******
SELFWEIGHT Y -1.15 LIST 1225 1237 1247 1869 1875 TO 1877 1888 1889 1892 1893 -
1899 1910 1914 TO 1917 1920 1921 1927 1928 1933 TO 1938 1941 TO 1945 1949 -
1950 TO 1953 1958 1975 1978 1979 1983 1991 1993 TO 1996 1998 1999 2002 2003 -
2008 2009 2012 2015 2016 2019 2020 2023 TO 2052 2055 TO 2082 2087 TO 2149
MEMBER LOAD
1876 1877 1888 1889 1892 1893 1899 1914 1916 1917 1941 TO 1945 1950 1975 1978 -
1979 1993 TO 1995 2015 2019 2023 2024 2081 2094 TO 2097 2151 -
2154 UNI GY -0.762
1920 1921 1927 1928 1937 1938 1998 1999 2002 2003 2008 2009 UNI GY -0.38
ONEWAY LOAD
YRANGE 0 5 ONE -3.125 GY
LOAD 6 LOADTYPE Dead  TITLE COLLECTRAL LOAD
JOINT LOAD
482 485 489 520 527 1424 TO 1427 1438 1476 1481 1487 1499 TO 1502 1610 -
1613 FY -20
LOAD 7 LOADTYPE Live  TITLE LIVE LOAD
MEMBER LOAD
1888 1889 1892 1893 1899 2081 2094 TO 2097 UNI GY -4.4
1920 1921 1927 1928 1937 1938 1998 1999 2002 2003 2008 2009 UNI GY -2.2
ONEWAY LOAD
YRANGE 0 5 ONE -3.5 GY
LOAD 8 LOADTYPE Wind  TITLE W+X PRESSURE
MEMBER LOAD
2151 2154 UNI GX 3.5
1950 1993 UNI GX 1.75
1876 1877 UNI GX 2.1
1916 1917 1978 2024 UNI GX 1.05
1888 1892 1899 2094 2097 UNI Y 7.9
1920 1927 1937 1998 2002 2008 UNI Y 3.95
1889 1893 2081 2095 2096 UNI Y 4.2
1921 1928 1938 1999 2003 2009 UNI Y 2.1
1975 1994 1995 2015 2019 2023 UNI GZ -4.9
1978 1993 2024 UNI GZ -2.45
1914 1941 TO 1945 UNI GZ 4.9
1916 1917 1950 UNI GZ 2.45
LOAD 9 LOADTYPE Wind  TITLE W +X SUCTION
MEMBER LOAD
2151 2154 UNI GX 6.23
1950 1993 UNI GX 3.12
1876 1877 UNI GX -0.7
1916 1917 1978 2024 UNI GX -0.35
1888 1892 1899 2094 2097 UNI Y 5.12
1920 1927 1937 1998 2002 2008 UNI Y 2.56
1889 1893 2081 2095 2096 UNI Y 1.4
1921 1928 1938 1999 2003 2009 UNI Y 0.7
1975 1994 1995 2015 2019 2023 UNI GZ -2.1
1978 1993 2024 UNI GZ -1.05
1914 1941 TO 1945 UNI GZ 2.1
1916 1917 1950 UNI GZ 1.05
LOAD 10 LOADTYPE Wind  TITLE W -X PRESSURE
MEMBER LOAD
2151 2154 UNI GX -2.1
1950 1993 UNI GX -1.05
1876 1877 UNI GX -3.5
1916 1917 1978 2024 UNI GX -1.75
1888 1892 1899 2094 2097 UNI Y 4.2
1920 1927 1937 1998 2002 2008 UNI Y 2.1
1889 1893 2081 2095 2096 UNI Y 7.9
1921 1928 1938 1999 2003 2009 UNI Y 3.95
1975 1994 1995 2015 2019 2023 UNI GZ -4.9
1978 1993 2024 UNI GZ -2.45
1914 1941 TO 1945 UNI GZ 4.9
1916 1917 1950 UNI GZ 2.45
LOAD 11 LOADTYPE Wind  TITLE W -X SUCTION
MEMBER LOAD
2151 2154 UNI GX 0.7
1950 1993 UNI GX 0.35
1876 1877 UNI GX -6.23
1916 1917 1978 2024 UNI GX -3.12
1888 1892 1899 2094 2097 UNI Y 1.4
1920 1927 1937 1998 2002 2008 UNI Y 0.7
1889 1893 2081 2095 2096 UNI Y 5.12
1921 1928 1938 1999 2003 2009 UNI Y 2.56
1975 1994 1995 2015 2019 2023 UNI GZ -2.1
1978 1993 2024 UNI GZ -1.05
1914 1941 TO 1945 UNI GZ 2.1
1916 1917 1950 UNI GZ 1.05
LOAD 12 LOADTYPE Wind  TITLE W 90 PRESSURE
MEMBER LOAD
2151 2154 UNI GX -6.23
1950 1993 UNI GX -3.12
1876 1877 UNI GX 6.23
1916 1917 1978 2024 UNI GX 3.12
1888 1892 1899 2094 2097 UNI Y 6.92
1920 1927 1937 1998 2002 2008 UNI Y 3.46
1889 1893 2081 2095 2096 UNI Y 6.92
1921 1928 1938 1999 2003 2009 UNI Y 3.46
1975 1994 1995 2015 2019 2023 UNI GZ 3.46
1978 1993 2024 UNI GZ 1.73
1914 1941 TO 1945 UNI GZ 3.46
1916 1917 1950 UNI GZ 1.73
LOAD 13 LOADTYPE Wind  TITLE WIND LOAD 90 SUCTION
MEMBER LOAD
2151 2154 UNI GX -3.46
1950 1993 UNI GX -1.73
1876 1877 UNI GX 3.46
1916 1917 1978 2024 UNI GX 1.73
1888 1892 1899 2094 2097 UNI Y 4.2
1920 1927 1937 1998 2002 2008 UNI Y 2.1
1889 1893 2081 2095 2096 UNI Y 4.2
1921 1928 1938 1999 2003 2009 UNI Y 2.1
1975 1994 1995 2015 2019 2023 UNI GZ 6.23
1978 1993 2024 UNI GZ 3.12
1914 1941 TO 1945 UNI GZ 0.7
1916 1917 1950 UNI GZ 0.35
LOAD 14 LOADTYPE Wind  TITLE WIND LOAD 270 PRESSURE
MEMBER LOAD
2151 2154 UNI GX -6.23
1950 1993 UNI GX -3.12
1876 1877 UNI GX 6.23
1916 1917 1978 2024 UNI GX 3.12
1888 1892 1899 2094 2097 UNI Y 6.92
1920 1927 1937 1998 2002 2008 UNI Y 3.46
1889 1893 2081 2095 2096 UNI Y 6.92
1921 1928 1938 1999 2003 2009 UNI Y 3.46
1975 1994 1995 2015 2019 2023 UNI GZ -3.46
1978 1993 2024 UNI GZ -1.73
1914 1941 TO 1945 UNI GZ -3.46
1916 1917 1950 UNI GZ -1.73
LOAD 15 LOADTYPE Wind  TITLE WIND LOAD 270 SUCTION
MEMBER LOAD
2151 2154 UNI GX -3.46
1950 1993 UNI GX -1.73
1876 1877 UNI GX 3.46
1916 1917 1978 2024 UNI GX 1.73
1888 1892 1899 2094 2097 UNI Y 4.2
1920 1927 1937 1998 2002 2008 UNI Y 2.1
1889 1893 2081 2095 2096 UNI Y 4.2
1921 1928 1938 1999 2003 2009 UNI Y 2.1
1975 1994 1995 2015 2019 2023 UNI GZ -0.7
1978 1993 2024 UNI GZ -0.35
1914 1941 TO 1945 UNI GZ -6.23
1916 1917 1950 UNI GZ -3.12
LOAD 16 LOADTYPE Crane Hook  TITLE CRANE 01
LOAD 17 LOADTYPE Crane Hook  TITLE CRANE 2
LOAD 18 LOADTYPE Crane Hook  TITLE CRANE 3
LOAD 19 LOADTYPE Crane Hook  TITLE CRANE 4
LOAD 20 LOADTYPE Crane Hook  TITLE CRANE 5
LOAD 21 LOADTYPE Crane Hook  TITLE CRANE 6
LOAD 22 LOADTYPE Crane Hook  TITLE CRANE 7
LOAD 23 LOADTYPE Crane Hook  TITLE CRANE 8
LOAD COMB 24 DL+CL
5 1.0 6 1.0 
LOAD COMB 25 DL+LL+CL
5 1.0 6 1.0 7 1.0 
LOAD COMB 26 DL+WL
5 1.0 8 1.0 
LOAD COMB 27 DL+WL
5 1.0 9 1.0 
LOAD COMB 28 DL+WL
5 1.0 10 1.0 
LOAD COMB 29 DL+WL
5 1.0 11 1.0 
LOAD COMB 30 DL+WL
5 1.0 12 1.0 
LOAD COMB 31 DL+WL
5 1.0 13 1.0 
LOAD COMB 32 DL+WL
5 1.0 14 1.0 
LOAD COMB 33 DL+WL
5 1.0 15 1.0 
LOAD COMB 34 DL+CL+WL
5 1.0 6 1.0 8 1.0 
LOAD COMB 35 DL+CL+WL
5 1.0 6 1.0 9 1.0 
LOAD COMB 36 DL+CL+WL
5 1.0 6 1.0 10 1.0 
LOAD COMB 37 DL+CL+WL
5 1.0 6 1.0 11 1.0 
LOAD COMB 38 DL+CL+WL
5 1.0 6 1.0 12 1.0 
LOAD COMB 39 DL+CL+WL
5 1.0 6 1.0 13 1.0 
LOAD COMB 40 DL+CL+WL
5 1.0 6 1.0 14 1.0 
LOAD COMB 41 DL+CL+WL
5 1.0 6 1.0 15 1.0 
LOAD COMB 42 DL+EQ
1 1.0 5 1.0 
LOAD COMB 43 DL+EQ
2 1.0 5 1.0 
LOAD COMB 44 DL+EQ
3 1.0 5 1.0 
LOAD COMB 45 DL+EQ
4 1.0 5 1.0 
LOAD COMB 46 DL+CL+EQ
1 1.0 5 1.0 6 1.0 
LOAD COMB 47 COMBINATION LOAD CASE 47
2 1.0 5 1.0 6 1.0 
LOAD COMB 48 DL+CL+EQ
3 1.0 5 1.0 6 1.0 
LOAD COMB 49 DL+CL+EQ
4 1.0 5 1.0 6 1.0 
LOAD COMB 50 DL+CL+LL+WL
5 1.0 6 1.0 7 0.75 8 0.75 
LOAD COMB 51 DL+CL+LL+WL
5 1.0 6 1.0 7 0.75 9 0.75 
LOAD COMB 52 DL+CL+LL+WL
5 1.0 6 1.0 7 0.75 10 0.75 
LOAD COMB 53 DL+CL+LL+WL
5 1.0 6 1.0 7 0.75 11 0.75 
LOAD COMB 54 DL+CL+LL+WL
5 1.0 6 1.0 7 0.75 12 0.75 
LOAD COMB 55 DL+CL+LL+WL
5 1.0 6 1.0 7 0.75 13 0.75 
LOAD COMB 56 DL+CL+LL+WL
5 1.0 6 1.0 7 0.75 14 0.75 
LOAD COMB 57 DL+CL+LL+WL
5 1.0 6 1.0 7 0.75 15 0.75 
LOAD COMB 58 DL+CL+LL+EQ
1 0.75 5 1.0 6 1.0 7 0.75 
LOAD COMB 59 DL+CL+LL+EQ
2 0.75 5 1.0 6 1.0 7 0.75 
LOAD COMB 60 DL+CL+LL+EQ
3 0.75 5 1.0 6 1.0 7 0.75 
LOAD COMB 61 DL+CL+LL+EQ
4 0.75 5 1.0 6 1.0 7 0.75 
LOAD COMB 62 DL+CRANE LOAD
5 1.0 16 1.0 
LOAD COMB 63 DL+CRANE LOAD
5 1.0 17 1.0 
LOAD COMB 64 DL+CRANE LOAD
5 1.0 18 1.0 
LOAD COMB 65 DL+CRANE LOAD
5 1.0 19 1.0 
LOAD COMB 66 DL+CRANE LOAD
5 1.0 20 1.0 
LOAD COMB 67 DL+CRANE LOAD
5 1.0 21 1.0 
LOAD COMB 68 DL+CRANE LOAD
5 1.0 22 1.0 
LOAD COMB 69 DL+CRANE LOAD
5 1.0 23 1.0 
LOAD COMB 70 DL+CL+LL+CRANE LOAD
5 1.0 6 1.0 7 1.0 16 1.0 
LOAD COMB 71 DL+CL+LL+CRANE LOAD
5 1.0 6 1.0 7 1.0 17 1.0 
LOAD COMB 72 DL+CL+LL+CRANE LOAD
5 1.0 6 1.0 7 1.0 18 1.0 
LOAD COMB 73 DL+CL+LL+CRANE LOAD
5 1.0 6 1.0 7 1.0 19 1.0 
LOAD COMB 74 DL+CL+LL+CRANE LOAZ
5 1.0 6 1.0 7 1.0 20 1.0 
LOAD COMB 75 DL+CL+LL+CRANE LOAD
5 1.0 6 1.0 7 1.0 21 1.0 
LOAD COMB 76 DL+CL+LL+CRANE LOAD
5 1.0 6 1.0 7 1.0 22 1.0 
LOAD COMB 77 DL+CL+LL+CRANE LOAD
5 1.0 6 1.0 7 1.0 23 1.0 
LOAD COMB 78 DL+CL+LL+WL+CRANE LOAD
5 1.0 6 1.0 7 0.75 8 0.75 16 0.75 
LOAD COMB 79 DL+CL+LL+WL+CRANE LOAD
5 1.0 6 1.0 7 0.75 8 0.75 17 0.75 
LOAD COMB 80 DL+CL+LL+WL+CRANE LOAD
5 1.0 6 1.0 7 0.75 8 0.75 18 0.75 
LOAD COMB 81 DL+CL+LL+WL+CRANE LOAD
5 1.0 6 1.0 7 0.75 8 0.75 19 0.75 
LOAD COMB 82 DL+CL+LL+WL+CRANE LOAD
5 1.0 6 1.0 7 0.75 8 0.75 20 0.75 
LOAD COMB 83 DL+CL+LL+WL+CRANE LOAD
5 1.0 6 1.0 7 0.75 8 0.75 21 0.75 
LOAD COMB 84 DL+CL+LL+WL+CRANE LOAD
5 1.0 6 1.0 7 0.75 8 0.75 22 0.75 
LOAD COMB 85 DL+CL+LL+WL+CRANE LOAD
5 1.0 6 1.0 7 0.75 8 0.75 23 0.75 
**************************************************
LOAD COMB 86 DL+CL+LL+WL+CRANE LOAD
5 1.0 6 1.0 7 0.75 9 0.75 16 0.75 
LOAD COMB 87 DL+CL+LL+WL+CRANE LOAD
5 1.0 6 1.0 7 0.75 9 0.75 17 0.75 
LOAD COMB 88 DL+CL+LL+WL+CRANE LOAD
5 1.0 6 1.0 7 0.75 9 0.75 18 0.75 
LOAD COMB 89 DL+CL+LL+WL+CRANE LOAD
5 1.0 6 1.0 7 0.75 9 0.75 19 0.75 
LOAD COMB 90 DL+CL+LL+WL+CRANE LOAD
5 1.0 6 1.0 7 0.75 9 0.75 20 0.75 
LOAD COMB 91 DL+CL+LL+WL+CRANE LOAD
5 1.0 6 1.0 7 0.75 9 0.75 21 0.75 
LOAD COMB 92 DL+CL+LL+WL+CRANE LOAD
5 1.0 6 1.0 7 0.75 9 0.75 22 0.75 
LOAD COMB 93 DL+CL+LL+WL+CRANE LOAD
5 1.0 6 1.0 7 0.75 9 0.75 23 0.75 
***************************************************
LOAD COMB 94 DL+CL+LL+WL+CRANE LOAD
5 1.0 6 1.0 7 0.75 10 0.75 16 0.75 
LOAD COMB 95 DL+CL+LL+WL+CRANE LOAD
5 1.0 6 1.0 7 0.75 10 0.75 17 0.75 
LOAD COMB 96 DL+CL+LL+WL+CRANE LOAD
5 1.0 6 1.0 7 0.75 10 0.75 18 0.75 
LOAD COMB 97 DL+CL+LL+WL+CRANE LOAD
5 1.0 6 1.0 7 0.75 10 0.75 19 0.75 
LOAD COMB 98 DL+CL+LL+WL+CRANE LOAD
5 1.0 6 1.0 7 0.75 10 0.75 20 0.75 
LOAD COMB 99 DL+CL+LL+WL+CRANE LOAD
5 1.0 6 1.0 7 0.75 10 0.75 21 0.75 
LOAD COMB 100 DL+CL+LL+WL+CRANE LOAD
5 1.0 6 1.0 7 0.75 10 0.75 22 0.75 
LOAD COMB 101 DL+CL+LL+WL+CRANE LOAD
5 1.0 6 1.0 7 0.75 10 0.75 23 0.75 
*************************************
LOAD COMB 102 DL+CL+LL+WL+CRANE LOAD
5 1.0 6 1.0 7 0.75 11 0.75 16 0.75 
LOAD COMB 103 DL+CL+LL+WL+CRANE LOAD
5 1.0 6 1.0 7 0.75 11 0.75 17 0.75 
LOAD COMB 104 DL+CL+LL+WL+CRANE LOAD
5 1.0 6 1.0 7 0.75 11 0.75 18 0.75 
LOAD COMB 105 DL+CL+LL+WL+CRANE LOAD
5 1.0 6 1.0 7 0.75 11 0.75 19 0.75 
LOAD COMB 106 DL+CL+LL+WL+CRANE LOAD
5 1.0 6 1.0 7 0.75 11 0.75 20 0.75 
LOAD COMB 107 DL+CL+LL+WL+CRANE LOAD
5 1.0 6 1.0 7 0.75 11 0.75 21 0.75 
LOAD COMB 108 DL+CL+LL+WL+CRANE LOAD
5 1.0 6 1.0 7 0.75 11 0.75 22 0.75 
LOAD COMB 109 DL+CL+LL+WL+CRANE LOAD
5 1.0 6 1.0 7 0.75 11 0.75 23 0.75 
************************************
LOAD COMB 110 DL+CL+LL+WL+CRANE LOAD
5 1.0 6 1.0 7 0.75 12 0.75 16 0.75 
LOAD COMB 111 DL+CL+LL+WL+CRANE LOAD
5 1.0 6 1.0 7 0.75 12 0.75 17 0.75 
LOAD COMB 112 DL+CL+LL+WL+CRANE LOAD
5 1.0 6 1.0 7 0.75 12 0.75 18 0.75 
LOAD COMB 113 DL+CL+LL+WL+CRANE LOAD
5 1.0 6 1.0 7 0.75 12 0.75 19 0.75 
LOAD COMB 114 DL+CL+LL+WL+CRANE LOAD
5 1.0 6 1.0 7 0.75 12 0.75 20 0.75 
LOAD COMB 115 DL+CL+LL+WL+CRANE LOAD
5 1.0 6 1.0 7 0.75 12 0.75 21 0.75 
LOAD COMB 116 DL+CL+LL+WL+CRANE LOAD
5 1.0 6 1.0 7 0.75 12 0.75 22 0.75 
LOAD COMB 117 DL+CL+LL+WL+CRANE LOAD
5 1.0 6 1.0 7 0.75 12 0.75 23 0.75 
************************************
LOAD COMB 118 DL+CL+LL+WL+CRANE LOAD
5 1.0 6 1.0 7 0.75 13 0.75 16 0.75 
LOAD COMB 119 DL+CL+LL+WL+CRANE LOAD
5 1.0 6 1.0 7 0.75 13 0.75 17 0.75 
LOAD COMB 120 DL+CL+LL+WL+CRANE LOAD
5 1.0 6 1.0 7 0.75 13 0.75 18 0.75 
LOAD COMB 121 DL+CL+LL+WL+CRANE LOAD
5 1.0 6 1.0 7 0.75 13 0.75 19 0.75 
LOAD COMB 122 DL+CL+LL+WL+CRANE LOAD
5 1.0 6 1.0 7 0.75 13 0.75 20 0.75 
LOAD COMB 123 DL+CL+LL+WL+CRANE LOAD
5 1.0 6 1.0 7 0.75 13 0.75 21 0.75 
LOAD COMB 124 DL+CL+LL+WL+CRANE LOAD
5 1.0 6 1.0 7 0.75 13 0.75 22 0.75 
LOAD COMB 125 DL+CL+LL+WL+CRANE LOAD
5 1.0 6 1.0 7 0.75 13 0.75 23 0.75 
**********************************
LOAD COMB 126 DL+CL+LL+WL+CRANE LOAD
5 1.0 6 1.0 7 0.75 14 0.75 16 0.75 
LOAD COMB 127 DL+CL+LL+WL+CRANE LOAD
5 1.0 6 1.0 7 0.75 14 0.75 17 0.75 
LOAD COMB 128 DL+CL+LL+WL+CRANE LOAD
5 1.0 6 1.0 7 0.75 14 0.75 18 0.75 
LOAD COMB 129 DL+CL+LL+WL+CRANE LOAD
5 1.0 6 1.0 7 0.75 14 0.75 19 0.75 
LOAD COMB 130 DL+CL+LL+WL+CRANE LOAD
5 1.0 6 1.0 7 0.75 14 0.75 20 0.75 
LOAD COMB 131 DL+CL+LL+WL+CRANE LOAD
5 1.0 6 1.0 7 0.75 14 0.75 21 0.75 
LOAD COMB 132 DL+CL+LL+WL+CRANE LOAD
5 1.0 6 1.0 7 0.75 14 0.75 22 0.75 
LOAD COMB 133 DL+CL+LL+WL+CRANE LOAD
5 1.0 6 1.0 7 0.75 14 0.75 23 0.75 
**********************************
LOAD COMB 134 DL+CL+LL+WL+CRANE LOAD
5 1.0 6 1.0 7 0.75 15 0.75 16 0.75 
LOAD COMB 135 DL+CL+LL+WL+CRANE LOAD
5 1.0 6 1.0 7 0.75 15 0.75 17 0.75 
LOAD COMB 136 DL+CL+LL+WL+CRANE LOAD
5 1.0 6 1.0 7 0.75 15 0.75 18 0.75 
LOAD COMB 137 DL+CL+LL+WL+CRANE LOAD
5 1.0 6 1.0 7 0.75 15 0.75 19 0.75 
LOAD COMB 138 DL+CL+LL+WL+CRANE LOAD
5 1.0 6 1.0 7 0.75 15 0.75 20 0.75 
LOAD COMB 139 DL+CL+LL+WL+CRANE LOAD
5 1.0 6 1.0 7 0.75 15 0.75 21 0.75 
LOAD COMB 140 DL+CL+LL+WL+CRANE LOAD
5 1.0 6 1.0 7 0.75 15 0.75 22 0.75 
LOAD COMB 141 DL+CL+LL+WL+CRANE LOAD
5 1.0 6 1.0 7 0.75 15 0.75 23 0.75 
PERFORM ANALYSIS
DEFINE ENVELOPE
24 TO 141 ENVELOPE 1
END DEFINE ENVELOPE
LOAD LIST ENV 1
PARAMETER 1
CODE AISC UNIFIED 2010
METHOD ASD
FYLD 345000 MEMB 1875 TO 1877 1888 1889 1892 1893 1899 1910 1914 TO 1917 1920 -
1921 1927 1928 1933 TO 1938 1941 TO 1945 1949 1950 1975 1978 1979 1983 1991 -
1993 TO 1996 1998 1999 2002 2003 2008 2009 2012 2015 2016 2019 2020 2023 -
2024 TO 2052 2081 2082 2093 TO 2099 2114 2115 2117 2119 2121 2123 2125 2127 -
2129 2131 TO 2133 2135 2137 2139 2141 2143 2145 2147 2149 2151 2152 2154 -
2155 2163 2164
STP 2 MEMB 1875 TO 1877 1888 1889 1892 1893 1899 1910 1914 TO 1917 1920 1921 -
1927 1928 1933 TO 1938 1941 TO 1945 1949 1950 1975 1978 1979 1983 1991 1993 -
1994 TO 1996 1998 1999 2002 2003 2008 2009 2012 2015 2016 2019 2020 -
2023 TO 2052 2081 2082 2093 TO 2099 2114 2115 2117 2119 2121 2123 2125 2127 -
2129 2131 TO 2133 2135 2137 2139 2141 2143 2145 2147 2149 2151 2152 2154 -
2155 2163 2164
LY 1.5 MEMB 1876 1877 1888 1889 1892 1893 1899 1914 1916 1917 1920 1921 1927 -
1928 1937 1938 1941 TO 1945 1950 1975 1978 1979 1993 TO 1995 1998 1999 2002 -
2003 2008 2009 2015 2019 2023 2024 2027 TO 2030 2038 2039 2041 2042 2044 -
2045 2047 2048 2081 2094 TO 2097 2114 2115 2117 2119 2121 2123 2125 2127 -
2129 2131 TO 2133 2135 2137 2139 2141 2143 2145 2147 2149 2151 2154
UNT 1.5 MEMB 1876 1877 1888 1889 1892 1893 1899 1914 1916 1917 1920 1921 1927 -
1928 1937 1938 1941 TO 1945 1950 1975 1978 1979 1993 TO 1995 1998 1999 2002 -
2003 2008 2009 2015 2019 2023 2024 2027 TO 2030 2038 2039 2041 2042 2044 -
2045 2047 2048 2081 2094 TO 2097 2114 2115 2117 2119 2121 2123 2125 2127 -
2129 2131 TO 2133 2135 2137 2139 2141 2143 2145 2147 2149 2151 2154
UNB 1.5 MEMB 1876 1877 1888 1889 1892 1893 1899 1914 1916 1917 1920 1921 1927 -
1928 1937 1938 1941 TO 1945 1950 1975 1978 1979 1993 TO 1995 1998 1999 2002 -
2003 2008 2009 2015 2019 2023 2024 2027 TO 2030 2038 2039 2041 2042 2044 -
2045 2047 2048 2081 2094 TO 2097 2114 2115 2117 2119 2121 2123 2125 2127 -
2129 2131 TO 2133 2135 2137 2139 2141 2143 2145 2147 2149 2151 2154
LZ 7.62 MEMB 1888 1899 1920 1921 1927 1928 1937 1938 1998 1999 2002 2003 2008 -
2009 2026 2031 TO 2037 2040 2043 2046 2049 TO 2052 2097
LZ 22.9 MEMB 1892 1893 2081 2094 TO 2096
LZ 6.5 MEMB 1875 TO 1877 1910 1915 TO 1917 1950 1978 1979 1993 1996 2024 2151 -
2152 2154 2155
LZ 8 MEMB 1914 1933 1935 1936 1941 1942 1944 1945 1949 1975 1983 1991 1994 -
1995 2012 2015 2016 2019
MAIN 250 MEMB 1225 1237 1247 1869 1951 TO 1953 1958 2087 TO 2090 2150 2153 -
2161 2162
TRACK 2 MEMB 1225 1237 1247 1869 1875 TO 1877 1888 1889 1892 1893 1899 1910 -
1914 TO 1917 1920 1921 1927 1928 1933 TO 1938 1941 TO 1945 1949 TO 1953 1958 -
1975 1978 1979 1983 1991 1993 TO 1996 1998 1999 2002 2003 2008 2009 2012 -
2015 2016 2019 2020 2023 2024 2081 2087 TO 2090 2094 TO 2097 2150 TO 2155 -
2161 2162
CHECK CODE MEMB 1875 TO 1877 1888 1889 1892 1893 1899 1910 1914 TO 1917 1920 -
1921 1927 1928 1933 TO 1938 1941 TO 1945 1949 1950 1975 1978 1979 1983 1991 -
1993 TO 1996 1998 1999 2002 2003 2008 2009 2012 2015 2016 2019 2020 2023 -
2024 TO 2052 2081 2082 2093 TO 2149 2151 2152 2154 2155 2163 2164
STEEL TAKE OFF LIST 1225 1237 1247 1869 1875 TO 1877 1888 1889 1892 1893 1899 -
1910 1914 TO 1917 1920 1921 1927 1928 1933 TO 1938 1941 TO 1945 1949 TO 1953 -
1958 1975 1978 1979 1983 1991 1993 TO 1996 1998 1999 2002 2003 2008 2009 -
2012 2015 2016 2019 2020 2023 TO 2052 2055 TO 2082 2087 TO 2099 2114 2115 -
2117 2119 2121 2123 2125 2127 2129 2131 TO 2133 2135 2137 2139 2141 2143 -
2145 2147 2149 TO 2155 2161 TO 2164
FINISH
